!-Generator IDFEditor 1.50
!-Option SortedOrder

!-NOTE: All comments with '!-' are ignored by the IDFEditor and are generated automatically.
!-      Use '!' comments if they need to be retained when using the IDFEditor.


!-   ===========  ALL OBJECTS IN CLASS: VERSION ===========

! EMSPlantLoopOverrideControl.idf
! Basic file description: 10 zone, 2 story building
!
! Highlights:              This file demonstrates using Energy Management System to override
!                          plant loop contorls.  this file was derived from EcoroofOrlando.idf
!
! Simulation Location/Run: ORLANDO FL USA TMY--12841, 2 design days, 1 run periods,
!                          Run Control executes one run period (see RUN PERIOD object)
!
! Location:                Orlando, FL
!
! Design Days:             Orlando_FL_USA Annual Heating 99.6%, MaxDB=4°C
!                          Orlando_FL_USA Annual Cooling (WB=>MDB) .4%, MDB=30.7°C WB=26.8°C
!
! Run Period (Weather File): First part of february ORLANDO FL USA TMY
!
! Run Control:             Zone and System sizing with weather file run control (no design days run)
!
! Building: <more details about building.  metric units, if also english enclose in []{} or ()>
! Floor Area:
! Number of Stories:
!
! Zone Description Details:
! Internal gains description: <lighting level, equipment, number of occupants, infiltration, daylighting, etc>
! Interzone Surfaces:
! Internal Mass:
! People:
! Lights:
! Windows:
! Detached Shading:
! Daylight:
! Natural Ventilation          :
! Compact Schedules (preferred):
! Solar Distribution:
!
! HVAC: <HVAC description and plant supply, as appropriate>
! Purchased Air:
! Zonal Equipment:
! Central Air Handling Equipment:
! System Equipment Autosize:
! Purchased Cooling:
! Purchased Heating:
! Coils:
! Pumps:
! Boilers:
! Chillers:
! Towers:
!
! Results: <how are results reported>
! Standard Reports:
! Timestep or Hourly Variables:
! Time bins Report:
! HTML Report:
! Environmental Emissions:
! Utility Tariffs:
Version,
    8.9;                     !- Version Identifier


!-   ===========  ALL OBJECTS IN CLASS: SIMULATIONCONTROL ===========

SimulationControl,
    Yes,                     !- Do Zone Sizing Calculation
    Yes,                     !- Do System Sizing Calculation
    No,                      !- Do Plant Sizing Calculation
    Yes,                     !- Run Simulation for Sizing Periods
    Yes;                     !- Run Simulation for Weather File Run Periods


!-   ===========  ALL OBJECTS IN CLASS: BUILDING ===========

Building,
    AutoBuilt Model,         !- Name
    0.00,                    !- North Axis {deg}
    City,                    !- Terrain
    0.040,                   !- Loads Convergence Tolerance Value
    0.200,                   !- Temperature Convergence Tolerance Value {deltaC}
    FullInteriorAndExterior, !- Solar Distribution
    25,                      !- Maximum Number of Warmup Days
    6;                       !- Minimum Number of Warmup Days


!-   ===========  ALL OBJECTS IN CLASS: SHADOWCALCULATION ===========

ShadowCalculation,
    AverageOverDaysInFrequency,  !- Calculation Method
    30;                      !- Calculation Frequency


!-   ===========  ALL OBJECTS IN CLASS: SURFACECONVECTIONALGORITHM:INSIDE ===========

SurfaceConvectionAlgorithm:Inside,
    TARP;                    !- Algorithm


!-   ===========  ALL OBJECTS IN CLASS: SURFACECONVECTIONALGORITHM:OUTSIDE ===========

SurfaceConvectionAlgorithm:Outside,
    DOE-2;                   !- Algorithm


!-   ===========  ALL OBJECTS IN CLASS: HEATBALANCEALGORITHM ===========

HeatBalanceAlgorithm,
    ConductionTransferFunction;  !- Algorithm


!-   ===========  ALL OBJECTS IN CLASS: ZONEAIRHEATBALANCEALGORITHM ===========

ZoneAirHeatBalanceAlgorithm,
    AnalyticalSolution;      !- Algorithm


!-   ===========  ALL OBJECTS IN CLASS: TIMESTEP ===========

Timestep,
    6;                       !- Number of Timesteps per Hour


!-   ===========  ALL OBJECTS IN CLASS: CONVERGENCELIMITS ===========

ConvergenceLimits,
    5,                       !- Minimum System Timestep {minutes}
    5;                       !- Maximum HVAC Iterations


!-   ===========  ALL OBJECTS IN CLASS: SITE:LOCATION ===========

Site:Location,
    Orlando_FL_USA Design_Conditions,  !- Name
    28.55,                   !- Latitude {deg}
    -81.33,                  !- Longitude {deg}
    -5.00,                   !- Time Zone {hr}
    32.00;                   !- Elevation {m}


!-   ===========  ALL OBJECTS IN CLASS: SIZINGPERIOD:DESIGNDAY ===========

! Using Design Conditions from "Climate Design Data 2005 ASHRAE Handbook"
! Orlando_FL_USA Extreme Annual Wind Speeds, 1%=8.5m/s, 2.5%=7.8m/s, 5%=7m/s
! Orlando_FL_USA Extreme Annual Temperatures, Max Drybulb=35.9°C Min Drybulb=0.1°C
! Orlando_FL_USA Annual Heating Design Conditions Wind Speed=3.7m/s Wind Dir=330
! Coldest Month=JAN
! Orlando_FL_USA Annual Heating 99.6%, MaxDB=4°C
SizingPeriod:DesignDay,
    Orlando Ann Htg 99.6% Condns DB,  !- Name
    1,                       !- Month
    21,                      !- Day of Month
    WinterDesignDay,         !- Day Type
    4,                       !- Maximum Dry-Bulb Temperature {C}
    0.0,                     !- Daily Dry-Bulb Temperature Range {deltaC}
    ,                        !- Dry-Bulb Temperature Range Modifier Type
    ,                        !- Dry-Bulb Temperature Range Modifier Day Schedule Name
    Wetbulb,                 !- Humidity Condition Type
    4,                       !- Wetbulb or DewPoint at Maximum Dry-Bulb {C}
    ,                        !- Humidity Condition Day Schedule Name
    ,                        !- Humidity Ratio at Maximum Dry-Bulb {kgWater/kgDryAir}
    ,                        !- Enthalpy at Maximum Dry-Bulb {J/kg}
    ,                        !- Daily Wet-Bulb Temperature Range {deltaC}
    100941.,                 !- Barometric Pressure {Pa}
    3.7,                     !- Wind Speed {m/s}
    330,                     !- Wind Direction {deg}
    No,                      !- Rain Indicator
    No,                      !- Snow Indicator
    No,                      !- Daylight Saving Time Indicator
    ASHRAEClearSky,          !- Solar Model Indicator
    ,                        !- Beam Solar Day Schedule Name
    ,                        !- Diffuse Solar Day Schedule Name
    ,                        !- ASHRAE Clear Sky Optical Depth for Beam Irradiance (taub) {dimensionless}
    ,                        !- ASHRAE Clear Sky Optical Depth for Diffuse Irradiance (taud) {dimensionless}
    0.00;                    !- Sky Clearness

! Orlando_FL_USA Annual Cooling (WB=>MDB) .4%, MDB=30.7°C WB=26.8°C
SizingPeriod:DesignDay,
    Orlando Ann Clg .4% Condns WB=>MDB,  !- Name
    7,                       !- Month
    21,                      !- Day of Month
    SummerDesignDay,         !- Day Type
    30.7,                    !- Maximum Dry-Bulb Temperature {C}
    9,                       !- Daily Dry-Bulb Temperature Range {deltaC}
    ,                        !- Dry-Bulb Temperature Range Modifier Type
    ,                        !- Dry-Bulb Temperature Range Modifier Day Schedule Name
    Wetbulb,                 !- Humidity Condition Type
    26.8,                    !- Wetbulb or DewPoint at Maximum Dry-Bulb {C}
    ,                        !- Humidity Condition Day Schedule Name
    ,                        !- Humidity Ratio at Maximum Dry-Bulb {kgWater/kgDryAir}
    ,                        !- Enthalpy at Maximum Dry-Bulb {J/kg}
    ,                        !- Daily Wet-Bulb Temperature Range {deltaC}
    100941.,                 !- Barometric Pressure {Pa}
    3.9,                     !- Wind Speed {m/s}
    270,                     !- Wind Direction {deg}
    No,                      !- Rain Indicator
    No,                      !- Snow Indicator
    No,                      !- Daylight Saving Time Indicator
    ASHRAEClearSky,          !- Solar Model Indicator
    ,                        !- Beam Solar Day Schedule Name
    ,                        !- Diffuse Solar Day Schedule Name
    ,                        !- ASHRAE Clear Sky Optical Depth for Beam Irradiance (taub) {dimensionless}
    ,                        !- ASHRAE Clear Sky Optical Depth for Diffuse Irradiance (taud) {dimensionless}
    1.00;                    !- Sky Clearness


!-   ===========  ALL OBJECTS IN CLASS: RUNPERIOD ===========

RunPeriod,
    first part of Feb,       !- Name
    2,                       !- Begin Month
    3,                       !- Begin Day of Month
    2,                       !- End Month
    17,                      !- End Day of Month
    Sunday,                  !- Day of Week for Start Day
    No,                      !- Use Weather File Holidays and Special Days
    No,                      !- Use Weather File Daylight Saving Period
    No,                      !- Apply Weekend Holiday Rule
    Yes,                     !- Use Weather File Rain Indicators
    Yes;                     !- Use Weather File Snow Indicators


!-   ===========  ALL OBJECTS IN CLASS: RUNPERIODCONTROL:SPECIALDAYS ===========

! US National Holidays
RunPeriodControl:SpecialDays,
    New Years Day,           !- Name
    January 1,               !- Start Date
    1,                       !- Duration {days}
    Holiday;                 !- Special Day Type

RunPeriodControl:SpecialDays,
    Veterans Day,            !- Name
    November 11,             !- Start Date
    1,                       !- Duration {days}
    Holiday;                 !- Special Day Type

RunPeriodControl:SpecialDays,
    Christmas,               !- Name
    December 25,             !- Start Date
    1,                       !- Duration {days}
    Holiday;                 !- Special Day Type

RunPeriodControl:SpecialDays,
    Independence Day,        !- Name
    July 4,                  !- Start Date
    1,                       !- Duration {days}
    Holiday;                 !- Special Day Type

RunPeriodControl:SpecialDays,
    MLK Day,                 !- Name
    3rd Monday in January,   !- Start Date
    1,                       !- Duration {days}
    Holiday;                 !- Special Day Type

RunPeriodControl:SpecialDays,
    Presidents Day,          !- Name
    3rd Monday in February,  !- Start Date
    1,                       !- Duration {days}
    Holiday;                 !- Special Day Type

RunPeriodControl:SpecialDays,
    Memorial Day,            !- Name
    Last Monday in May,      !- Start Date
    1,                       !- Duration {days}
    Holiday;                 !- Special Day Type

RunPeriodControl:SpecialDays,
    Labor Day,               !- Name
    1st Monday in September, !- Start Date
    1,                       !- Duration {days}
    Holiday;                 !- Special Day Type

RunPeriodControl:SpecialDays,
    Columbus Day,            !- Name
    2nd Monday in October,   !- Start Date
    1,                       !- Duration {days}
    Holiday;                 !- Special Day Type

RunPeriodControl:SpecialDays,
    Thanksgiving,            !- Name
    4th Thursday in November,!- Start Date
    1,                       !- Duration {days}
    Holiday;                 !- Special Day Type


!-   ===========  ALL OBJECTS IN CLASS: RUNPERIODCONTROL:DAYLIGHTSAVINGTIME ===========

! Daylight Saving Period in US
RunPeriodControl:DaylightSavingTime,
    2nd Sunday in March,     !- Start Date
    1st Sunday in November;  !- End Date


!-   ===========  ALL OBJECTS IN CLASS: SITE:GROUNDTEMPERATURE:BUILDINGSURFACE ===========

! 1000m2-Setpoints.idf
Site:GroundTemperature:BuildingSurface,
    19.00,                   !- January Ground Temperature {C}
    20.01,                   !- February Ground Temperature {C}
    20.07,                   !- March Ground Temperature {C}
    20.12,                   !- April Ground Temperature {C}
    20.17,                   !- May Ground Temperature {C}
    20.23,                   !- June Ground Temperature {C}
    20.28,                   !- July Ground Temperature {C}
    20.31,                   !- August Ground Temperature {C}
    20.30,                   !- September Ground Temperature {C}
    20.30,                   !- October Ground Temperature {C}
    20.29,                   !- November Ground Temperature {C}
    20.27;                   !- December Ground Temperature {C}


!-   ===========  ALL OBJECTS IN CLASS: SITE:PRECIPITATION ===========

Site:Precipitation,
    ScheduleAndDesignLevel,  !- Precipitation Model Type
    1,                       !- Design Level for Total Annual Precipitation {m/yr}
    precipitationMiami,      !- Precipitation Rates Schedule Name
    1;                       !- Average Total Annual Precipitation {m/yr}


!-   ===========  ALL OBJECTS IN CLASS: ROOFIRRIGATION ===========

RoofIrrigation,
    SmartSchedule,           !- Irrigation Model Type
    IRRIGATIONSCHD;          !- Irrigation Rate Schedule Name


!-   ===========  ALL OBJECTS IN CLASS: SCHEDULETYPELIMITS ===========

ScheduleTypeLimits,
    Any Number;              !- Name

ScheduleTypeLimits,
    Fraction,                !- Name
    0.0,                     !- Lower Limit Value
    1.0,                     !- Upper Limit Value
    CONTINUOUS;              !- Numeric Type

ScheduleTypeLimits,
    Temperature,             !- Name
    -60,                     !- Lower Limit Value
    200,                     !- Upper Limit Value
    CONTINUOUS,              !- Numeric Type
    Temperature;             !- Unit Type

ScheduleTypeLimits,
    On/Off,                  !- Name
    0,                       !- Lower Limit Value
    1,                       !- Upper Limit Value
    DISCRETE;                !- Numeric Type

ScheduleTypeLimits,
    Control Type,            !- Name
    0,                       !- Lower Limit Value
    4,                       !- Upper Limit Value
    DISCRETE;                !- Numeric Type

ScheduleTypeLimits,
    Humidity,                !- Name
    10,                      !- Lower Limit Value
    90,                      !- Upper Limit Value
    CONTINUOUS;              !- Numeric Type

ScheduleTypeLimits,
    Number;                  !- Name


!-   ===========  ALL OBJECTS IN CLASS: SCHEDULE:COMPACT ===========

! Schedule for irrigation (1"/irrday summer 0.5"/irrday winter: Mon and Fri at ~10am)
! Note: UCF documentation inconsistent 1 vs 2 " in summer per week??
! To avoid stability issues with 1hour timesteps we simply add 1/7th of weekly
! precipitation evenly divided into 2 hours each of ALLDAYS each season
! Note: 0.00181 in*2hrs*7days = 1 inch per week
! m/hour
Schedule:Compact,
    IRRIGATIONSCHD,          !- Name
    Any Number,              !- Schedule Type Limits Name
    Through: 3/31,           !- Field 1
    For: Alldays,            !- Field 2
    Until: 07:00,            !- Field 3
    0.0,                     !- Field 4
    Until: 09:00,            !- Field 5
    0.00181,                 !- Field 6
    Until: 24:00,            !- Field 7
    0.0,                     !- Field 8
    Through: 12/31,          !- Field 9
    For: Alldays,            !- Field 10
    Until: 07:00,            !- Field 11
    0.0,                     !- Field 12
    Until: 09:00,            !- Field 13
    0.00242,                 !- Field 14
    Until: 24:00,            !- Field 15
    0.0;                     !- Field 16

! Precipitation Schedule was created using
!   Location: USA_FL_MIAMI
!   EPW: USA_FL_Miami_TMY2.epw
!   Ave Mon Precip Location: 085663 MIA MIAMI INTL AP FL
!   Ave Mon Precipitation: 0.03785, 0.0381, 0.04775, 0.06045, 0.1158, 0.2035, 0.1402, 0.2065, 0.1996, 0.1313, 0.06858, 0.04013
! m/hour
Schedule:Compact,
    PrecipitationMiami,      !- Name
    Any Number,              !- Schedule Type Limits Name
    Through: 1/1,            !- Field 1
    For: AllDays,            !- Field 2
    Until: 4:00,             !- Field 3
    0,                       !- Field 4
    Until: 17:00,            !- Field 5
    0.00118269,              !- Field 6
    Until: 18:00,            !- Field 7
    0,                       !- Field 8
    Until: 19:00,            !- Field 9
    0.00118269,              !- Field 10
    Until: 24:00,            !- Field 11
    0,                       !- Field 12
    Through: 1/2,            !- Field 13
    For: AllDays,            !- Field 14
    Until: 24:00,            !- Field 15
    0,                       !- Field 16
    Through: 1/3,            !- Field 17
    For: AllDays,            !- Field 18
    Until: 24:00,            !- Field 19
    0,                       !- Field 20
    Through: 1/4,            !- Field 21
    For: AllDays,            !- Field 22
    Until: 22:00,            !- Field 23
    0,                       !- Field 24
    Until: 24:00,            !- Field 25
    0.00118269,              !- Field 26
    Through: 1/5,            !- Field 27
    For: AllDays,            !- Field 28
    Until: 24:00,            !- Field 29
    0,                       !- Field 30
    Through: 1/6,            !- Field 31
    For: AllDays,            !- Field 32
    Until: 23:00,            !- Field 33
    0,                       !- Field 34
    Until: 24:00,            !- Field 35
    0.00118269,              !- Field 36
    Through: 1/7,            !- Field 37
    For: AllDays,            !- Field 38
    Until: 24:00,            !- Field 39
    0,                       !- Field 40
    Through: 1/8,            !- Field 41
    For: AllDays,            !- Field 42
    Until: 24:00,            !- Field 43
    0,                       !- Field 44
    Through: 1/9,            !- Field 45
    For: AllDays,            !- Field 46
    Until: 24:00,            !- Field 47
    0,                       !- Field 48
    Through: 1/10,           !- Field 49
    For: AllDays,            !- Field 50
    Until: 24:00,            !- Field 51
    0,                       !- Field 52
    Through: 1/11,           !- Field 53
    For: AllDays,            !- Field 54
    Until: 20:00,            !- Field 55
    0,                       !- Field 56
    Until: 22:00,            !- Field 57
    0.00118269,              !- Field 58
    Until: 24:00,            !- Field 59
    0,                       !- Field 60
    Through: 1/12,           !- Field 61
    For: AllDays,            !- Field 62
    Until: 8:00,             !- Field 63
    0,                       !- Field 64
    Until: 12:00,            !- Field 65
    0.00118269,              !- Field 66
    Until: 24:00,            !- Field 67
    0,                       !- Field 68
    Through: 1/13,           !- Field 69
    For: AllDays,            !- Field 70
    Until: 24:00,            !- Field 71
    0,                       !- Field 72
    Through: 1/14,           !- Field 73
    For: AllDays,            !- Field 74
    Until: 4:00,             !- Field 75
    0,                       !- Field 76
    Until: 7:00,             !- Field 77
    0.00118269,              !- Field 78
    Until: 24:00,            !- Field 79
    0,                       !- Field 80
    Through: 1/15,           !- Field 81
    For: AllDays,            !- Field 82
    Until: 24:00,            !- Field 83
    0,                       !- Field 84
    Through: 1/16,           !- Field 85
    For: AllDays,            !- Field 86
    Until: 24:00,            !- Field 87
    0,                       !- Field 88
    Through: 1/17,           !- Field 89
    For: AllDays,            !- Field 90
    Until: 24:00,            !- Field 91
    0,                       !- Field 92
    Through: 1/18,           !- Field 93
    For: AllDays,            !- Field 94
    Until: 24:00,            !- Field 95
    0,                       !- Field 96
    Through: 1/19,           !- Field 97
    For: AllDays,            !- Field 98
    Until: 8:00,             !- Field 99
    0,                       !- Field 100
    Until: 9:00,             !- Field 101
    0.00118269,              !- Field 102
    Until: 24:00,            !- Field 103
    0,                       !- Field 104
    Through: 1/20,           !- Field 105
    For: AllDays,            !- Field 106
    Until: 24:00,            !- Field 107
    0,                       !- Field 108
    Through: 1/21,           !- Field 109
    For: AllDays,            !- Field 110
    Until: 14:00,            !- Field 111
    0,                       !- Field 112
    Until: 15:00,            !- Field 113
    0.00118269,              !- Field 114
    Until: 16:00,            !- Field 115
    0,                       !- Field 116
    Until: 19:00,            !- Field 117
    0.00118269,              !- Field 118
    Until: 24:00,            !- Field 119
    0,                       !- Field 120
    Through: 1/22,           !- Field 121
    For: AllDays,            !- Field 122
    Until: 24:00,            !- Field 123
    0,                       !- Field 124
    Through: 1/23,           !- Field 125
    For: AllDays,            !- Field 126
    Until: 24:00,            !- Field 127
    0,                       !- Field 128
    Through: 1/24,           !- Field 129
    For: AllDays,            !- Field 130
    Until: 24:00,            !- Field 131
    0,                       !- Field 132
    Through: 1/25,           !- Field 133
    For: AllDays,            !- Field 134
    Until: 24:00,            !- Field 135
    0,                       !- Field 136
    Through: 1/26,           !- Field 137
    For: AllDays,            !- Field 138
    Until: 24:00,            !- Field 139
    0,                       !- Field 140
    Through: 1/27,           !- Field 141
    For: AllDays,            !- Field 142
    Until: 24:00,            !- Field 143
    0,                       !- Field 144
    Through: 1/28,           !- Field 145
    For: AllDays,            !- Field 146
    Until: 8:00,             !- Field 147
    0,                       !- Field 148
    Until: 9:00,             !- Field 149
    0.00118269,              !- Field 150
    Until: 24:00,            !- A153
    0,                       !- A154
    Through: 1/29,           !- A155
    For: AllDays,            !- A156
    Until: 24:00,            !- A157
    0,                       !- A158
    Through: 1/30,           !- A159
    For: AllDays,            !- A160
    Until: 24:00,            !- A161
    0,                       !- A162
    Through: 1/31,           !- A163
    For: AllDays,            !- A164
    Until: 24:00,            !- A165
    0,                       !- A166
    Through: 2/1,            !- A167
    For: AllDays,            !- A168
    Until: 24:00,            !- A169
    0,                       !- A170
    Through: 2/2,            !- A171
    For: AllDays,            !- A172
    Until: 21:00,            !- A173
    0,                       !- A174
    Until: 23:00,            !- A175
    0.00146538,              !- A176
    Until: 24:00,            !- A177
    0,                       !- A178
    Through: 2/3,            !- A179
    For: AllDays,            !- A180
    Until: 6:00,             !- A181
    0,                       !- A182
    Until: 7:00,             !- A183
    0.00146538,              !- A184
    Until: 8:00,             !- A185
    0,                       !- A186
    Until: 9:00,             !- A187
    0.00146538,              !- A188
    Until: 21:00,            !- A189
    0,                       !- A190
    Until: 24:00,            !- A191
    0.00146538,              !- A192
    Through: 2/4,            !- A193
    For: AllDays,            !- A194
    Until: 9:00,             !- A195
    0.00146538,              !- A196
    Until: 10:00,            !- A197
    0,                       !- A198
    Until: 12:00,            !- A199
    0.00146538,              !- A200
    Until: 24:00,            !- A201
    0,                       !- A202
    Through: 2/5,            !- A203
    For: AllDays,            !- A204
    Until: 4:00,             !- A205
    0,                       !- A206
    Until: 5:00,             !- A207
    0.00146538,              !- A208
    Until: 24:00,            !- A209
    0,                       !- A210
    Through: 2/6,            !- A211
    For: AllDays,            !- A212
    Until: 24:00,            !- A213
    0,                       !- A214
    Through: 2/7,            !- A215
    For: AllDays,            !- A216
    Until: 1:00,             !- A217
    0.00146538,              !- A218
    Until: 3:00,             !- A219
    0,                       !- A220
    Until: 4:00,             !- A221
    0.00146538,              !- A222
    Until: 22:00,            !- A223
    0,                       !- A224
    Until: 23:00,            !- A225
    0.00146538,              !- A226
    Until: 24:00,            !- A227
    0,                       !- A228
    Through: 2/8,            !- A229
    For: AllDays,            !- A230
    Until: 24:00,            !- A231
    0,                       !- A232
    Through: 2/9,            !- A233
    For: AllDays,            !- A234
    Until: 24:00,            !- A235
    0,                       !- A236
    Through: 2/10,           !- A237
    For: AllDays,            !- A238
    Until: 24:00,            !- A239
    0,                       !- A240
    Through: 2/11,           !- A241
    For: AllDays,            !- A242
    Until: 24:00,            !- A243
    0,                       !- A244
    Through: 2/12,           !- A245
    For: AllDays,            !- A246
    Until: 24:00,            !- A247
    0,                       !- A248
    Through: 2/13,           !- A249
    For: AllDays,            !- A250
    Until: 24:00,            !- A251
    0,                       !- A252
    Through: 2/14,           !- A253
    For: AllDays,            !- A254
    Until: 24:00,            !- A255
    0,                       !- A256
    Through: 2/15,           !- A257
    For: AllDays,            !- A258
    Until: 24:00,            !- A259
    0,                       !- A260
    Through: 2/16,           !- A261
    For: AllDays,            !- A262
    Until: 24:00,            !- A263
    0,                       !- A264
    Through: 2/17,           !- A265
    For: AllDays,            !- A266
    Until: 24:00,            !- A267
    0,                       !- A268
    Through: 2/18,           !- A269
    For: AllDays,            !- A270
    Until: 24:00,            !- A271
    0,                       !- A272
    Through: 2/19,           !- A273
    For: AllDays,            !- A274
    Until: 24:00,            !- A275
    0,                       !- A276
    Through: 2/20,           !- A277
    For: AllDays,            !- A278
    Until: 24:00,            !- A279
    0,                       !- A280
    Through: 2/21,           !- A281
    For: AllDays,            !- A282
    Until: 5:00,             !- A283
    0,                       !- A284
    Until: 6:00,             !- A285
    0.00146538,              !- A286
    Until: 9:00,             !- A287
    0,                       !- A288
    Until: 10:00,            !- A289
    0.00146538,              !- A290
    Until: 24:00,            !- A291
    0,                       !- A292
    Through: 2/22,           !- A293
    For: AllDays,            !- A294
    Until: 24:00,            !- A295
    0,                       !- A296
    Through: 2/23,           !- A297
    For: AllDays,            !- A298
    Until: 24:00,            !- A299
    0,                       !- A300
    Through: 2/24,           !- A301
    For: AllDays,            !- A302
    Until: 4:00,             !- A303
    0,                       !- A304
    Until: 5:00,             !- A305
    0.00146538,              !- A306
    Until: 24:00,            !- A307
    0,                       !- A308
    Through: 2/25,           !- A309
    For: AllDays,            !- A310
    Until: 15:00,            !- A311
    0,                       !- A312
    Until: 16:00,            !- A313
    0.00146538,              !- A314
    Until: 24:00,            !- A315
    0,                       !- A316
    Through: 2/26,           !- A317
    For: AllDays,            !- A318
    Until: 24:00,            !- A319
    0,                       !- A320
    Through: 2/27,           !- A321
    For: AllDays,            !- A322
    Until: 24:00,            !- A323
    0,                       !- A324
    Through: 2/28,           !- A325
    For: AllDays,            !- A326
    Until: 24:00,            !- A327
    0,                       !- A328
    Through: 3/1,            !- A329
    For: AllDays,            !- A330
    Until: 24:00,            !- A331
    0,                       !- A332
    Through: 3/2,            !- A333
    For: AllDays,            !- A334
    Until: 24:00,            !- A335
    0,                       !- A336
    Through: 3/3,            !- A337
    For: AllDays,            !- A338
    Until: 24:00,            !- A339
    0,                       !- A340
    Through: 3/4,            !- A341
    For: AllDays,            !- A342
    Until: 24:00,            !- A343
    0,                       !- A344
    Through: 3/5,            !- A345
    For: AllDays,            !- A346
    Until: 24:00,            !- A347
    0,                       !- A348
    Through: 3/6,            !- A349
    For: AllDays,            !- A350
    Until: 12:00,            !- A351
    0,                       !- A352
    Until: 13:00,            !- A353
    0.00341086,              !- A354
    Until: 24:00,            !- A355
    0,                       !- A356
    Through: 3/7,            !- A357
    For: AllDays,            !- A358
    Until: 24:00,            !- A359
    0,                       !- A360
    Through: 3/8,            !- A361
    For: AllDays,            !- A362
    Until: 24:00,            !- A363
    0,                       !- A364
    Through: 3/9,            !- A365
    For: AllDays,            !- A366
    Until: 24:00,            !- A367