
OS:Version,
  {7ee3f13b-a6eb-41f5-a79f-6b7d96de13b5}, !- Handle
  2.4.0;                                  !- Version Identifier

OS:Site,
  {ead8411e-34ba-4d4b-9c9e-962b57578e59}, !- Handle
  Chicago Ohare Intl Ap_IL_USA,           !- Name
  41.98,                                  !- Latitude {deg}
  -87.92,                                 !- Longitude {deg}
  -6,                                     !- Time Zone {hr}
  201,                                    !- Elevation {m}
  Suburbs;                                !- Terrain

OS:SimulationControl,
  {ad54b01c-1679-43a9-94c5-1a58f59dbe48}, !- Handle
  Yes,                                    !- Do Zone Sizing Calculation
  Yes,                                    !- Do System Sizing Calculation
  Yes,                                    !- Do Plant Sizing Calculation
  No,                                     !- Run Simulation for Sizing Periods
  Yes,                                    !- Run Simulation for Weather File Run Periods
  0.04,                                   !- Loads Convergence Tolerance Value
  0.4,                                    !- Temperature Convergence Tolerance Value {deltaC}
  FullExterior,                           !- Solar Distribution
  25,                                     !- Maximum Number of Warmup Days
  6;                                      !- Minimum Number of Warmup Days

OS:Connection,
  {c639757f-ad95-4bc7-aad3-d8d7ba799eb3}, !- Handle
  {1b49edce-979a-4bcc-b32c-d5378a363097}, !- Name
  ,                                       !- Source Object
  11,                                     !- Outlet Port
  ,                                       !- Target Object
  2;                                      !- Inlet Port

OS:Space,
  {a333ca74-a895-4ad9-93c7-7ae4d331a4d3}, !- Handle
  GuestRoom214,                           !- Name
  {baebb535-7299-40e2-bdd1-d15df31bb147}, !- Space Type Name
  ,                                       !- Default Construction Set Name
  ,                                       !- Default Schedule Set Name
  0,                                      !- Direction of Relative North {deg}
  0,                                      !- X Origin {m}
  0,                                      !- Y Origin {m}
  0,                                      !- Z Origin {m}
  {f47d80e7-722f-41d2-9f1f-137b14625c7d}, !- Building Story Name
  {0ca166fb-7b0d-4d3c-97c8-e68a918e148a}; !- Thermal Zone Name

OS:Surface,
  {6ab2a29c-988a-410a-9056-9334f396909e}, !- Handle
  W_FrontStairsFlr1_4_0_0,                !- Name
  Wall,                                   !- Surface Type
  ,                                       !- Construction Name
  {d781f4f0-544b-47f2-938a-70a45fa448bc}, !- Space Name
  Outdoors,                               !- Outside Boundary Condition
  ,                                       !- Outside Boundary Condition Object
  SunExposed,                             !- Sun Exposure
  WindExposed,                            !- Wind Exposure
  ,                                       !- View Factor to Ground
  ,                                       !- Number of Vertices
  0.048684424, 18.3374292198, 3.3528,     !- X,Y,Z Vertex 1 {m}
  0.048684424, 18.3374292198, 0,          !- X,Y,Z Vertex 2 {m}
  0.048684424, 10.1078292198, 0,          !- X,Y,Z Vertex 3 {m}
  0.048684424, 10.1078292198, 3.3528;     !- X,Y,Z Vertex 4 {m}

OS:Connection,
  {3afc82ca-e647-4c3a-add4-b2a36b5946eb}, !- Handle
  {576e9938-d781-44f5-85e8-60966c18e5ee}, !- Name
  ,                                       !- Source Object
  11,                                     !- Outlet Port
  ,                                       !- Target Object
  2;                                      !- Inlet Port

OS:Space,
  {d781f4f0-544b-47f2-938a-70a45fa448bc}, !- Handle
  FrontStairsFlr1,                        !- Name
  {d34eeb80-829a-423b-9a9d-91512c97a581}, !- Space Type Name
  ,                                       !- Default Construction Set Name
  ,                                       !- Default Schedule Set Name
  0,                                      !- Direction of Relative North {deg}
  0,                                      !- X Origin {m}
  0,                                      !- Y Origin {m}
  0,                                      !- Z Origin {m}
  {d965d8be-0402-4380-9af1-ed90bc503e31}, !- Building Story Name
  {c6145000-2f3e-4d1d-9a5b-275369e83040}; !- Thermal Zone Name

OS:Surface,
  {2f4b494b-89bb-4560-9cfb-29bc6a0f7430}, !- Handle
  P_CorridorFlr2_8_0_0,                   !- Name
  Wall,                                   !- Surface Type
  ,                                       !- Construction Name
  {f70dc682-523e-4dc5-8135-f1d3ba8075f5}, !- Space Name
  Surface,                                !- Outside Boundary Condition
  {873757e9-64a0-4b26-9655-1f2925f45cb2}, !- Outside Boundary Condition Object
  NoSun,                                  !- Sun Exposure
  NoWind,                                 !- Wind Exposure
  ,                                       !- View Factor to Ground
  ,                                       !- Number of Vertices
  26.8710844241, 10.10782922, 6.096,      !- X,Y,Z Vertex 1 {m}
  26.8710844241, 10.10782922, 3.3528,     !- X,Y,Z Vertex 2 {m}
  26.8710844241, 18.33742922, 3.3528,     !- X,Y,Z Vertex 3 {m}
  26.8710844241, 18.33742922, 6.096;      !- X,Y,Z Vertex 4 {m}

OS:Connection,
  {1506a3b0-543d-41f3-885b-17e19fa3aa3b}, !- Handle
  {90e42701-14d5-4029-ae02-3c06b7b370f1}, !- Name
  ,                                       !- Source Object
  11,                                     !- Outlet Port
  ,                                       !- Target Object
  2;                                      !- Inlet Port

OS:Space,
  {f70dc682-523e-4dc5-8135-f1d3ba8075f5}, !- Handle
  CorridorFlr2,                           !- Name
  {edd1e0e2-1bc5-41bc-9313-1e218f4437a1}, !- Space Type Name
  ,                                       !- Default Construction Set Name
  ,                                       !- Default Schedule Set Name
  0,                                      !- Direction of Relative North {deg}
  0,                                      !- X Origin {m}
  0,                                      !- Y Origin {m}
  0,                                      !- Z Origin {m}
  {f47d80e7-722f-41d2-9f1f-137b14625c7d}, !- Building Story Name
  {80054313-1cba-4e33-8cff-3d73da3f7e22}; !- Thermal Zone Name

OS:Surface,
  {46510338-b0fc-4d95-a01c-5052f3328119}, !- Handle
  C_GuestRoom306_308_1_0_0,               !- Name
  RoofCeiling,                            !- Surface Type
  ,                                       !- Construction Name
  {806cc7ec-d494-4101-bf0a-85812ebea92b}, !- Space Name
  Surface,                                !- Outside Boundary Condition
  {c04c2cbc-2cca-42c0-bd38-d25fe2c2ca65}, !- Outside Boundary Condition Object
  NoSun,                                  !- Sun Exposure
  NoWind,                                 !- Wind Exposure
  ,                                       !- View Factor to Ground
  ,                                       !- Number of Vertices
  32.66228442, 0.04884522, 8.8392,        !- X,Y,Z Vertex 1 {m}
  32.66228442, 8.27902922, 8.8392,        !- X,Y,Z Vertex 2 {m}
  19.86068442, 8.27902922, 8.8392,        !- X,Y,Z Vertex 3 {m}
  19.86068442, 0.04884522, 8.8392;        !- X,Y,Z Vertex 4 {m}

OS:Connection,
  {52aa152d-c5a8-491b-9af8-edbe3b187e52}, !- Handle
  {66c33d47-e38b-444f-9739-4a43afa15eb3}, !- Name
  ,                                       !- Source Object
  11,                                     !- Outlet Port
  ,                                       !- Target Object
  2;                                      !- Inlet Port

OS:Space,
  {806cc7ec-d494-4101-bf0a-85812ebea92b}, !- Handle
  GuestRoom306_308,                       !- Name
  {ad961cb3-c4c4-4e2f-a261-e8d700cb3032}, !- Space Type Name
  ,                                       !- Default Construction Set Name
  ,                                       !- Default Schedule Set Name
  0,                                      !- Direction of Relative North {deg}
  0,                                      !- X Origin {m}
  0,                                      !- Y Origin {m}
  0,                                      !- Z Origin {m}
  {5e3c8d30-45ae-43f0-accc-baeccbbf166a}, !- Building Story Name
  {78ad9e02-b650-4277-9022-c6995337fdbf}; !- Thermal Zone Name

OS:Connection,
  {2ff8d575-2c9d-4f97-8ee4-c0f780963520}, !- Handle
  {3d148698-3514-40cc-a890-9c4480af3b3b}, !- Name
  ,                                       !- Source Object
  11,                                     !- Outlet Port
  ,                                       !- Target Object
  2;                                      !- Inlet Port

OS:Space,
  {11e54e26-5e0c-42c4-a4a7-fbe843fcfffd}, !- Handle
  MeetingRoomFlr1,                        !- Name
  {f4a5b033-0d73-4bf9-8013-699395c87da1}, !- Space Type Name
  ,                                       !- Default Construction Set Name
  ,                                       !- Default Schedule Set Name
  0,                                      !- Direction of Relative North {deg}
  0,                                      !- X Origin {m}
  0,                                      !- Y Origin {m}
  0,                                      !- Z Origin {m}
  {d965d8be-0402-4380-9af1-ed90bc503e31}, !- Building Story Name
  {3b94b59a-f24b-464e-97f2-ef8f0cbf4ab1}; !- Thermal Zone Name

OS:SubSurface,
  {0a4fc4eb-874b-48d2-8cae-0ca0f387279d}, !- Handle
  D_CorridorFlr1_16_0_0_0_0,              !- Name
  FixedWindow,                            !- Sub Surface Type
  ,                                       !- Construction Name
  {b720f4a3-bc92-4b42-bce7-35c55743d182}, !- Surface Name
  ,                                       !- Outside Boundary Condition Object
  ,                                       !- View Factor to Ground
  ,                                       !- Shading Control Name
  ,                                       !- Frame and Divider Name
  1,                                      !- Multiplier
  ,                                       !- Number of Vertices
  0.04868442, 10.10582922, 2.4364,        !- X,Y,Z Vertex 1 {m}
  0.04868442, 10.10582922, 0.002,         !- X,Y,Z Vertex 2 {m}
  0.04868442, 8.28102922, 0.002,          !- X,Y,Z Vertex 3 {m}
  0.04868442, 8.28102922, 2.4364;         !- X,Y,Z Vertex 4 {m}

OS:Surface,
  {b720f4a3-bc92-4b42-bce7-35c55743d182}, !- Handle
  W_CorridorFlr1_16_0_0,                  !- Name
  Wall,                                   !- Surface Type
  ,                                       !- Construction Name
  {13ac5cdc-6435-421f-9da0-a199c81f01df}, !- Space Name
  Outdoors,                               !- Outside Boundary Condition
  ,                                       !- Outside Boundary Condition Object
  SunExposed,                             !- Sun Exposure
  WindExposed,                            !- Wind Exposure
  ,                                       !- View Factor to Ground
  ,                                       !- Number of Vertices
  0.048684424, 10.1078292198, 3.3528,     !- X,Y,Z Vertex 1 {m}
  0.048684424, 10.1078292198, 0,          !- X,Y,Z Vertex 2 {m}
  0.048684424, 8.2790292198, 0,           !- X,Y,Z Vertex 3 {m}
  0.048684424, 8.2790292198, 3.3528;      !- X,Y,Z Vertex 4 {m}

OS:Connection,
  {3a2edf6c-15f7-4bfe-8d8d-cb013240cbef}, !- Handle
  {43e56422-4f83-4d5d-a6d7-3f0cdf1e7da1}, !- Name
  ,                                       !- Source Object
  11,                                     !- Outlet Port
  ,                                       !- Target Object
  2;                                      !- Inlet Port

OS:Space,
  {13ac5cdc-6435-421f-9da0-a199c81f01df}, !- Handle
  CorridorFlr1,                           !- Name
  {edd1e0e2-1bc5-41bc-9313-1e218f4437a1}, !- Space Type Name
  ,                                       !- Default Construction Set Name
  ,                                       !- Default Schedule Set Name
  0,                                      !- Direction of Relative North {deg}
  0,                                      !- X Origin {m}
  0,                                      !- Y Origin {m}
  0,                                      !- Z Origin {m}
  {d965d8be-0402-4380-9af1-ed90bc503e31}, !- Building Story Name
  {87b6d10e-7859-43a2-9178-8d7653bd47d2}; !- Thermal Zone Name

OS:Surface,
  {ba84c081-716e-4217-8f57-2c6b4dbccaaa}, !- Handle
  P_FrontStorageFlr3_10210_0_10117,       !- Name
  Wall,                                   !- Surface Type
  ,                                       !- Construction Name
  {585c9728-d787-4811-a0ec-c3be4426894d}, !- Space Name
  Surface,                                !- Outside Boundary Condition
  {a0efcefd-7358-4176-bdf6-460681712150}, !- Outside Boundary Condition Object
  NoSun,                                  !- Sun Exposure
  NoWind,                                 !- Wind Exposure
  ,                                       !- View Factor to Ground
  ,                                       !- Number of Vertices
  2.48708442, 10.1078292198, 8.8392,      !- X,Y,Z Vertex 1 {m}
  2.48708442, 10.1078292198, 6.096,       !- X,Y,Z Vertex 2 {m}
  4.01108442, 10.1078292198, 6.096,       !- X,Y,Z Vertex 3 {m}
  4.01108442, 10.1078292198, 8.8392;      !- X,Y,Z Vertex 4 {m}

OS:Connection,
  {f2525df7-f096-4eae-aeea-acdb180d7124}, !- Handle
  {328d4bf6-da19-4d2d-8ce5-00e3bc3623e2}, !- Name
  ,                                       !- Source Object
  11,                                     !- Outlet Port
  ,                                       !- Target Object
  2;                                      !- Inlet Port

OS:Space,
  {585c9728-d787-4811-a0ec-c3be4426894d}, !- Handle
  FrontStorageFlr3,                       !- Name
  {bb314fc9-1193-4a22-b26f-150d73b30351}, !- Space Type Name
  ,                                       !- Default Construction Set Name
  ,                                       !- Default Schedule Set Name
  0,                                      !- Direction of Relative North {deg}
  0,                                      !- X Origin {m}
  0,                                      !- Y Origin {m}
  0,                                      !- Z Origin {m}
  {5e3c8d30-45ae-43f0-accc-baeccbbf166a}, !- Building Story Name
  {78c6ff8e-19d6-4b1b-99c1-e64b6ce8937e}; !- Thermal Zone Name

OS:Connection,
  {bb548c3a-c712-4afa-bd8e-e2b6bead28c0}, !- Handle
  {8846bdbf-7399-4b12-a2a4-daecfc727d8c}, !- Name
  ,                                       !- Source Object
  11,                                     !- Outlet Port
  ,                                       !- Target Object
  2;                                      !- Inlet Port

OS:Space,
  {f8b237cc-9b43-405c-8697-581024f0ba98}, !- Handle
  GuestRoom102,                           !- Name
  {ad961cb3-c4c4-4e2f-a261-e8d700cb3032}, !- Space Type Name
  ,                                       !- Default Construction Set Name
  ,                                       !- Default Schedule Set Name
  0,                                      !- Direction of Relative North {deg}
  0,                                      !- X Origin {m}
  0,                                      !- Y Origin {m}
  0,                                      !- Z Origin {m}
  {d965d8be-0402-4380-9af1-ed90bc503e31}, !- Building Story Name
  {97be5f4e-28cf-4914-bbf0-a17249594913}; !- Thermal Zone Name

OS:Surface,
  {9ca16cd4-3f3c-4b49-b671-3ba27222d99c}, !- Handle
  P_FrontOfficeFlr1_4_0_0,                !- Name
  Wall,                                   !- Surface Type
  ,                                       !- Construction Name
  {9b87cc6b-b20f-4a04-9ec3-88470b7acdab}, !- Space Name
  Surface,                                !- Outside Boundary Condition
  {3733f9f0-c6d2-4ebd-8e02-1d87c897121f}, !- Outside Boundary Condition Object
  NoSun,                                  !- Sun Exposure
  NoWind,                                 !- Wind Exposure
  ,                                       !- View Factor to Ground
  ,                                       !- Number of Vertices
  4.011084424, 18.33742922, 3.3528,       !- X,Y,Z Vertex 1 {m}
  4.011084424, 18.33742922, 0,            !- X,Y,Z Vertex 2 {m}
  4.011084424, 10.10782922, 0,            !- X,Y,Z Vertex 3 {m}
  4.011084424, 10.10782922, 3.3528;       !- X,Y,Z Vertex 4 {m}

OS:Connection,
  {40c4c8be-5706-4063-a78f-8610b39fdd38}, !- Handle
  {6f953dbb-9546-4051-ad33-62bdc85af256}, !- Name
  ,                                       !- Source Object
  11,                                     !- Outlet Port
  ,                                       !- Target Object
  2;                                      !- Inlet Port

OS:Space,
  {9b87cc6b-b20f-4a04-9ec3-88470b7acdab}, !- Handle
  FrontOfficeFlr1,                        !- Name
  {eeaa32ab-fe91-42a1-b237-35711e88a86a}, !- Space Type Name
  ,                                       !- Default Construction Set Name
  ,                                       !- Default Schedule Set Name
  0,                                      !- Direction of Relative North {deg}
  0,                                      !- X Origin {m}
  0,                                      !- Y Origin {m}
  0,                                      !- Z Origin {m}
  {d965d8be-0402-4380-9af1-ed90bc503e31}, !- Building Story Name
  {7260e94d-301b-4e2c-ac3a-91a4b118e22c}; !- Thermal Zone Name

OS:Surface,
  {6b3a2fc3-0404-4579-8176-928e2fa5bbce}, !- Handle
  P_CorridorFlr4_13_0_0,                  !- Name
  Wall,                                   !- Surface Type
  ,                                       !- Construction Name
  {81fc4940-ce03-4f00-b894-73bf84d810fc}, !- Space Name
  Surface,                                !- Outside Boundary Condition
  {971dbc5a-4285-47c2-a331-0b7911848a80}, !- Outside Boundary Condition Object
  NoSun,                                  !- Sun Exposure
  NoWind,                                 !- Wind Exposure
  ,                                       !- View Factor to Ground
  ,                                       !- Number of Vertices
  4.01108442, 10.1078292198, 11.5824,     !- X,Y,Z Vertex 1 {m}
  4.01108442, 10.1078292198, 8.8392,      !- X,Y,Z Vertex 2 {m}
  2.48708442, 10.1078292198, 8.8392,      !- X,Y,Z Vertex 3 {m}
  2.48708442, 10.1078292198, 11.5824;     !- X,Y,Z Vertex 4 {m}

OS:Connection,
  {452225bc-52a5-4874-ba8b-68741b9098a0}, !- Handle
  {dc8bc1b4-b867-4311-9264-1c40d75aafe5}, !- Name
  ,                                       !- Source Object
  11,                                     !- Outlet Port
  ,                                       !- Target Object
  2;                                      !- Inlet Port

OS:Space,
  {81fc4940-ce03-4f00-b894-73bf84d810fc}, !- Handle
  CorridorFlr4,                           !- Name
  {64401277-983c-4e11-a850-a5de0bae1c4b}, !- Space Type Name
  ,                                       !- Default Construction Set Name
  ,                                       !- Default Schedule Set Name
  0,                                      !- Direction of Relative North {deg}
  0,                                      !- X Origin {m}
  0,                                      !- Y Origin {m}
  0,                                      !- Z Origin {m}
  {bf4f018c-45d0-4ab8-a245-d37c0f150dd5}, !- Building Story Name
  {1a2a37ca-e816-4e4c-8a36-e2d37ab5b9f7}; !- Thermal Zone Name

OS:Connection,
  {caaf2a49-1766-4c7a-b5d4-896ba29cde0a}, !- Handle
  {6e3c55df-b56b-4fe4-a0f3-c51738d8d2fc}, !- Name
  ,                                       !- Source Object
  11,                                     !- Outlet Port
  ,                                       !- Target Object
  2;                                      !- Inlet Port

OS:Space,
  {1e4492cd-c86e-4286-a160-18a7a3211c43}, !- Handle
  ElevatorCoreFlr1,                       !- Name
  {9a903d06-7b92-464b-916e-e1b60637e715}, !- Space Type Name
  ,                                       !- Default Construction Set Name
  ,                                       !- Default Schedule Set Name
  0,                                      !- Direction of Relative North {deg}
  0,                                      !- X Origin {m}
  0,                                      !- Y Origin {m}
  0,                                      !- Z Origin {m}
  {d965d8be-0402-4380-9af1-ed90bc503e31}, !- Building Story Name
  {6401ecaf-c27c-436f-a7ad-1dac008dbc08}; !- Thermal Zone Name

OS:Surface,
  {1698e211-e0d9-41f8-8762-9a5fb18addad}, !- Handle
  P_GuestRoom419_10292_0_10154,           !- Name
  Wall,                                   !- Surface Type
  ,                                       !- Construction Name
  {99b49a33-d2fe-4175-b21b-0a5523a7351b}, !- Space Name
  Surface,                                !- Outside Boundary Condition
  {d1b35507-019b-46df-9721-337c482bb19b}, !- Outside Boundary Condition Object
  NoSun,                                  !- Sun Exposure
  NoWind,                                 !- Wind Exposure
  ,                                       !- View Factor to Ground
  ,                                       !- Number of Vertices
  28.69988442, 10.1078292198, 11.5824,    !- X,Y,Z Vertex 1 {m}
  28.69988442, 10.1078292198, 8.8392,     !- X,Y,Z Vertex 2 {m}
  32.66228442, 10.1078292198, 8.8392,     !- X,Y,Z Vertex 3 {m}
  32.66228442, 10.1078292198, 11.5824;    !- X,Y,Z Vertex 4 {m}

OS:Connection,
  {cfc48400-832d-485a-a0e2-b75f9676c07c}, !- Handle
  {d2a399a6-4da9-41a5-84aa-662a57127a23}, !- Name
  ,                                       !- Source Object
  11,                                     !- Outlet Port
  ,                                       !- Target Object
  2;                                      !- Inlet Port

OS:Space,
  {99b49a33-d2fe-4175-b21b-0a5523a7351b}, !- Handle
  GuestRoom419,                           !- Name
  {3c47503a-aec9-4b65-9735-b7cbcdfa84c3}, !- Space Type Name
  ,                                       !- Default Construction Set Name
  ,                                       !- Default Schedule Set Name
  0,                                      !- Direction of Relative North {deg}
  0,                                      !- X Origin {m}
  0,                                      !- Y Origin {m}
  0,                                      !- Z Origin {m}
  {bf4f018c-45d0-4ab8-a245-d37c0f150dd5}, !- Building Story Name
  {3379504a-aad4-4978-98c1-8f2a135e068a}; !- Thermal Zone Name

OS:Connection,
  {c05add47-0679-4c48-98cb-d1b1b9903fda}, !- Handle
  {82cae780-74aa-4902-90ca-702b4c5e9bc5}, !- Name
  ,                                       !- Source Object
  11,                                     !- Outlet Port
  ,                                       !- Target Object
  2;                                      !- Inlet Port

OS:Space,
  {fadbe4ff-80a7-4c40-9e3b-46eb988a8b98}, !- Handle
  FrontStairsFlr3,                        !- Name
  {d34eeb80-829a-423b-9a9d-91512c97a581}, !- Space Type Name
  ,                                       !- Default Construction Set Name
  ,                                       !- Default Schedule Set Name
  0,                                      !- Direction of Relative North {deg}
  0,                                      !- X Origin {m}
  0,                                      !- Y Origin {m}
  0,                                      !- Z Origin {m}
  {5e3c8d30-45ae-43f0-accc-baeccbbf166a}, !- Building Story Name
  {2237f0ca-6358-4ecd-a2d3-7e4f13b46b8a}; !- Thermal Zone Name

OS:Surface,
  {8c9acae9-3c9b-4fe7-86d1-4a4c9e4ec452}, !- Handle
  C_FrontStairsFlr2_1_0_0,                !- Name
  RoofCeiling,                            !- Surface Type
  ,                                       !- Construction Name
  {42a161bf-9ea3-4f3e-af65-1e39f7d98699}, !- Space Name
  Surface,                                !- Outside Boundary Condition
  {62871fa6-8b34-4736-a6c5-f1b828ef72ba}, !- Outside Boundary Condition Object
  NoSun,                                  !- Sun Exposure
  NoWind,                                 !- Wind Exposure
  ,                                       !- View Factor to Ground
  ,                                       !- Number of Vertices
  2.48708442, 10.10782922, 6.096,         !- X,Y,Z Vertex 1 {m}
  2.48708442, 18.33742922, 6.096,         !- X,Y,Z Vertex 2 {m}
  0.04868442, 18.33742922, 6.096,         !- X,Y,Z Vertex 3 {m}
  0.04868442, 10.10782922, 6.096;         !- X,Y,Z Vertex 4 {m}

OS:Connection,
  {708b318d-ef7f-416f-8702-80b3f5b9a028}, !- Handle
  {5d86002d-6175-43c6-a9c5-e8d7bc3455b9}, !- Name
  ,                                       !- Source Object
  11,                                     !- Outlet Port
  ,                                       !- Target Object
  2;                                      !- Inlet Port

OS:Space,
  {42a161bf-9ea3-4f3e-af65-1e39f7d98699}, !- Handle
  FrontStairsFlr2,                        !- Name
  {d34eeb80-829a-423b-9a9d-91512c97a581}, !- Space Type Name
  ,                                       !- Default Construction Set Name
  ,                                       !- Default Schedule Set Name
  0,                                      !- Direction of Relative North {deg}
  0,                                      !- X Origin {m}
  0,                                      !- Y Origin {m}
  0,                                      !- Z Origin {m}
  {f47d80e7-722f-41d2-9f1f-137b14625c7d}, !- Building Story Name
  {78beb4f1-a23e-4eef-9080-296fd6a67d2c}; !- Thermal Zone Name

OS:Surface,
  {6763a9c4-86c3-4261-b870-cdc9145b320a}, !- Handle
  W_RearStairsFlr4_2_0_0,                 !- Name
  Wall,                                   !- Surface Type
  ,                                       !- Construction Name
  {16352ff4-d002-474e-879a-d88057d2cc3b}, !- Space Name
  Outdoors,                               !- Outside Boundary Condition
  ,                                       !- Outside Boundary Condition Object
  SunExposed,                             !- Sun Exposure
  WindExposed,                            !- Wind Exposure
  ,                                       !- View Factor to Ground
  ,                                       !- Number of Vertices
  54.9132684242, 10.1078292198, 11.5824,  !- X,Y,Z Vertex 1 {m}
  54.9132684242, 10.1078292198, 8.8392,   !- X,Y,Z Vertex 2 {m}
  54.9132684242, 18.3374292198, 8.8392,   !- X,Y,Z Vertex 3 {m}
  54.9132684242, 18.3374292198, 11.5824;  !- X,Y,Z Vertex 4 {m}

OS:Connection,
  {ec08ca84-f3a0-48fd-9780-f3e4b3b5a85e}, !- Handle
  {c8bc1181-96d6-45c4-800a-b4aa024be2c7}, !- Name
  ,                                       !- Source Object
  11,                                     !- Outlet Port
  ,                                       !- Target Object
  2;                                      !- Inlet Port

OS:Space,
  {16352ff4-d002-474e-879a-d88057d2cc3b}, !- Handle
  RearStairsFlr4,                         !- Name
  {ab7c87a0-19df-4b6e-85b1-c9a99d469c02}, !- Space Type Name
  ,                                       !- Default Construction Set Name
  ,                                       !- Default Schedule Set Name
  0,                                      !- Direction of Relative North {deg}
  0,                                      !- X Origin {m}
  0,                                      !- Y Origin {m}
  0,                                      !- Z Origin {m}
  {bf4f018c-45d0-4ab8-a245-d37c0f150dd5}, !- Building Story Name
  {63cfe2b9-6235-4a50-83c9-475d22bde8a2}; !- Thermal Zone Name

OS:Surface,
  {378d1f01-eade-45bb-80b2-f37e7e38fcd6}, !- Handle
  F_ElevatorCoreFlr3_10166_0_10095,       !- Name
  Floor,                                  !- Surface Type
  ,                                       !- Construction Name
  {a415e192-21dc-4e10-a2c5-d8b844e5e159}, !- Space Name
  Surface,                                !- Outside Boundary Condition
  {a9fadd0e-9ac4-4bd4-bc15-4eeafcdb2912}, !- Outside Boundary Condition Object
  NoSun,                                  !- Sun Exposure
  NoWind,                                 !- Wind Exposure
  ,                                       !- View Factor to Ground
  ,                                       !- Number of Vertices
  28.69988442, 18.33742922, 6.096,        !- X,Y,Z Vertex 1 {m}
  28.69988442, 10.10782922, 6.096,        !- X,Y,Z Vertex 2 {m}
  26.87108442, 10.10782922, 6.096,        !- X,Y,Z Vertex 3 {m}
  26.87108442, 18.33742922, 6.096;        !- X,Y,Z Vertex 4 {m}

OS:Connection,
  {6b65583e-5a97-45f3-a276-c75a65792f2b}, !- Handle
  {0c3b1502-3e21-44e6-9757-7b273bef0cbd}, !- Name
  ,                                       !- Source Object
  11,                                     !- Outlet Port
  ,                                       !- Target Object
  2;                                      !- Inlet Port

OS:Space,
  {a415e192-21dc-4e10-a2c5-d8b844e5e159}, !- Handle
  ElevatorCoreFlr3,                       !- Name
  {2d6fed08-3e3f-476c-acc6-4720f2f9548e}, !- Space Type Name
  ,                                       !- Default Construction Set Name
  ,                                       !- Default Schedule Set Name
  0,                                      !- Direction of Relative North {deg}
  0,                                      !- X Origin {m}
  0,                                      !- Y Origin {m}
  0,                                      !- Z Origin {m}
  {5e3c8d30-45ae-43f0-accc-baeccbbf166a}, !- Building Story Name
  {363e89d9-c89a-4060-816c-842be3d39ef9}; !- Thermal Zone Name

OS:Surface,
  {ffdefcbb-9409-4331-8c93-de9cd129850a}, !- Handle
  R_GuestRoom420_423_1_0_0,               !- Name
  RoofCeiling,                            !- Surface Type
  ,                                       !- Construction Name
  {3fc1cc41-5c0a-41e3-bdc5-191e2ec9aebb}, !- Space Name
  Outdoors,                               !- Outside Boundary Condition
  ,                                       !- Outside Boundary Condition Object