!-Generator IDFEditor 1.50
!-Option OriginalOrderTop UseSpecialFormat

!-NOTE: All comments with '!-' are ignored by the IDFEditor and are generated automatically.
!-      Use '!' comments if they need to be retained when using the IDFEditor.

!EMSThermochromicWindow.idf
!  EMS emulation of thermochromic window model in ThermochromicWindow, which was from Small Office DOE Commercial Reference Building
!
! A sample thermochromic window construction is assigned to the window Perimeter_ZN_1_wall_south_Window_1.
!
! The overall window properties (U/SHGC/VT) of the thermochromic window at different specification temperatures are reported in the EIO file.
! DOE Commercial Building Benchmark
! Small Office, new construction
! Benchmark V 1.0_3.0
! EnergyPlus V 3.0
! ASHRAE Standards 90.1-2004 and 62-1999
!
! Description:  Single story, five zone office building.
! Form:         Area = 511 m2 (5,500 ft2); Number of Stories = 1; Shape = rectangle, Aspect ratio = 1.5
! Envelope:     Envelope thermal properties vary with climate according to ASHRAE Standard 90.1-2004.
!               Opaque constructions: mass walls; attic roof; slab-on-grade floor
!               Windows: window-to-wall ratio = 19%, equal distribution of punched windows
!               Infiltration = 0.4 cfm/ft2 above grade wall area at 0.3 in wc (75 Pa) adjusted to 0.016 in wc (4 Pa).
!                              25% of full value when ventilation system on.
! HVAC:         PSZ-AC, gas furnace
!               No economizer
!
! Int. gains:   lights = 10.76 W/m2 (1.0 W/ft2);
!               elec. plug loads = 6.78 W/m2 (0.63 W/ft2)
!               gas plug load = 0 W/m2 (0 W/ft2)
!               people = 7.53/100 m2 (7.0/1000 ft2)
!
! Detached Shading:               None
! Daylight:                       None
! Natural Ventilation:            None
! Zonal Equipment:                None
! Air Primary Loops:              PSZ-AC:1
! Plant Loops:                    SHWSys1
! System Equipment Autosize:      No
! Purchased Cooling:              None
! Purchased Heating:              None
! Coils:                          Coil:Cooling:DX:SingleSpeed; Coil:Heating:Fuel
! Pumps:                          None
! Boilers:                        None
! Chillers:                       None
!
! Generated by EPXMLPreproc2 (Windows 32 Version 0.1.2.1)
! Created on 11/14/2008 02:36:42
!***** NOTICE *****
!***** The Benchmarks were prepared as an account of work sponsored by an *****
!***** agency of the United States government. Neither the United States *****
!***** government nor any agency thereof, nor any of their employees, makes *****
!***** any warranty, express or implied, or assumes any legal liability or *****
!***** responsibility for the accuracy, completeness, or usefulness of any *****
!***** information, apparatus, product, or process disclosed, or represents *****
!***** that its use would not infringe privately owned rights. Reference *****
!***** herein to any specific commercial product, process, or service by *****
!***** trade name, trademark, manufacturer, or otherwise does not necessarily *****
!***** constitute or imply its endorsement, recommendation, or favoring by *****
!***** the United States government or any agency thereof. The views and *****
!***** opinions of authors expressed herein do not necessarily state or *****
!***** reflect those of the United States government or any agency thereof. *****
!***** Access to and use of the Benchmarks imposes the following obligations *****
!***** on the user. The user agrees to credit DOE, NREL, PNNL, and LBNL in *****
!***** any publication(s) that that result from the use of Benchmarks. *****
!***** However, the names of DOE/NREL/PNNL/LBNL may not be used in any *****
!***** advertising or publicity that implies endorsement or promotion of any *****
!***** products, services or commercial entities. *****
! Reference citation for the Commercial Building Benchmarks:
! Deru, M.; Griffith, B.; Long, N.; Benne, K.; Torcellini, P; Halverson, M.;
! Winiarski,  D.; Liu, B.; Crawley, D. (2008). DOE Commercial Building Resarch
! Benchmarks for Commercial Buildings. Washington, DC: U.S. Department of Energy,
! Energy Efficiency and Renewable Energy, Office of Building Technologies.
! Start SimMetaData
! WeatherFileName=USA_NV_Las.Vegas_TMY2.epw
! CodeStandard=ASHRAE 90.1-2004
! RoofConstruction=Attic and Other
! ExtWallConstruction=Mass
! End SimMetaData
Version,8.9;
Timestep,6;

SimulationControl,
    Yes,                     !- Do Zone Sizing Calculation
    Yes,                     !- Do System Sizing Calculation
    Yes,                     !- Do Plant Sizing Calculation
    No,                      !- Run Simulation for Sizing Periods
    Yes;                     !- Run Simulation for Weather File Run Periods

RunPeriod,
    July,                    !- Name
    7,                       !- Begin Month
    1,                       !- Begin Day of Month
    7,                       !- End Month
    31,                      !- End Day of Month
    Sunday,                  !- Day of Week for Start Day
    No,                      !- Use Weather File Holidays and Special Days
    No,                      !- Use Weather File Daylight Saving Period
    No,                      !- Apply Weekend Holiday Rule
    Yes,                     !- Use Weather File Rain Indicators
    Yes,                     !- Use Weather File Snow Indicators
    1;                       !- Number of Times Runperiod to be Repeated

SurfaceConvectionAlgorithm:Inside,TARP;
SurfaceConvectionAlgorithm:Outside,DOE-2;
HeatBalanceAlgorithm,ConductionTransferFunction,200.0000;

Sizing:Parameters,
    1.2000,                  !- Heating Sizing Factor
    1.2000;                  !- Cooling Sizing Factor

ConvergenceLimits,
    1,                       !- Minimum System Timestep {minutes}
    20;                      !- Maximum HVAC Iterations

ShadowCalculation,
    TimestepFrequency,       !- Calculation Method
    30,                      !- Calculation Frequency
    15000;                   !- Maximum Figures in Shadow Overlap Calculations

GlobalGeometryRules,
    UpperLeftCorner,         !- Starting Vertex Position
    Counterclockwise,        !- Vertex Entry Direction
    Relative,                !- Coordinate System
    Relative;                !- Daylighting Reference Point Coordinate System

Building,
    Benchmark Small Office New V1.0_3.0,  !- Name
    0.0000,                  !- North Axis {deg}
    City,                    !- Terrain
    0.0400,                  !- Loads Convergence Tolerance Value
    0.2000,                  !- Temperature Convergence Tolerance Value {deltaC}
    FullInteriorAndExterior, !- Solar Distribution
    25,                      !- Maximum Number of Warmup Days
    6;                       !- Minimum Number of Warmup Days

RunPeriodControl:SpecialDays,
    New Years Day,           !- Name
    January 1,               !- Start Date
    1,                       !- Duration {days}
    Holiday;                 !- Special Day Type

RunPeriodControl:SpecialDays,
    Veterans Day,            !- Name
    November 11,             !- Start Date
    1,                       !- Duration {days}
    Holiday;                 !- Special Day Type

RunPeriodControl:SpecialDays,
    Christmas,               !- Name
    December 25,             !- Start Date
    1,                       !- Duration {days}
    Holiday;                 !- Special Day Type

RunPeriodControl:SpecialDays,
    Independence Day,        !- Name
    July 4,                  !- Start Date
    1,                       !- Duration {days}
    Holiday;                 !- Special Day Type

RunPeriodControl:SpecialDays,
    MLK Day,                 !- Name
    3rd Monday in January,   !- Start Date
    1,                       !- Duration {days}
    Holiday;                 !- Special Day Type

RunPeriodControl:SpecialDays,
    Presidents Day,          !- Name
    3rd Monday in February,  !- Start Date
    1,                       !- Duration {days}
    Holiday;                 !- Special Day Type

RunPeriodControl:SpecialDays,
    Memorial Day,            !- Name
    Last Monday in May,      !- Start Date
    1,                       !- Duration {days}
    Holiday;                 !- Special Day Type

RunPeriodControl:SpecialDays,
    Labor Day,               !- Name
    1st Monday in September, !- Start Date
    1,                       !- Duration {days}
    Holiday;                 !- Special Day Type

RunPeriodControl:SpecialDays,
    Columbus Day,            !- Name
    2nd Monday in October,   !- Start Date
    1,                       !- Duration {days}
    Holiday;                 !- Special Day Type

RunPeriodControl:SpecialDays,
    Thanksgiving,            !- Name
    4th Thursday in November,!- Start Date
    1,                       !- Duration {days}
    Holiday;                 !- Special Day Type

! Daylight Saving Period in US
RunPeriodControl:DaylightSavingTime,
    2nd Sunday in March,     !- Start Date
    1st Sunday in November;  !- End Date

Site:Location,
    LAS_VEGAS_NV_USA TMY2-23169,  !- Name
    36.08000,                !- Latitude {deg}
    -115.1700,               !- Longitude {deg}
    -8.000000,               !- Time Zone {hr}
    664.0000;                !- Elevation {m}

Site:GroundTemperature:BuildingSurface,19.75,19.79,19.80,19.83,19.86,19.86,19.81,19.80,19.83,19.86,19.87,19.84;

! Daily Avg, 6.9, 11.3, 11.8, 19.4, 22.7, 30.0, 32.5, 31.5, 27.5, 19.5, 12.4, 8.3
Site:WaterMainsTemperature,
    CORRELATION,             !- Calculation Method
    ,                        !- Temperature Schedule Name
    19.48,                   !- Annual Average Outdoor Air Temperature {C}
    25.60;                   !- Maximum Difference In Monthly Average Outdoor Air Temperatures {deltaC}

! LAS_VEGAS_NV_USA Annual Heating 99.6%, MaxDB=-1.7°C
SizingPeriod:DesignDay,
    LAS_VEGAS Ann Htg 99.6% Condns DB,  !- Name
    1,                       !- Month
    21,                      !- Day of Month
    WinterDesignDay,         !- Day Type
    -1.7,                    !- Maximum Dry-Bulb Temperature {C}
    0.0,                     !- Daily Dry-Bulb Temperature Range {deltaC}
    ,                        !- Dry-Bulb Temperature Range Modifier Type
    ,                        !- Dry-Bulb Temperature Range Modifier Day Schedule Name
    Wetbulb,                 !- Humidity Condition Type
    -1.7,                    !- Wetbulb or DewPoint at Maximum Dry-Bulb {C}
    ,                        !- Humidity Condition Day Schedule Name
    ,                        !- Humidity Ratio at Maximum Dry-Bulb {kgWater/kgDryAir}
    ,                        !- Enthalpy at Maximum Dry-Bulb {J/kg}
    ,                        !- Daily Wet-Bulb Temperature Range {deltaC}
    93598.,                  !- Barometric Pressure {Pa}
    3.1,                     !- Wind Speed {m/s}
    240,                     !- Wind Direction {deg}
    No,                      !- Rain Indicator
    No,                      !- Snow Indicator
    No,                      !- Daylight Saving Time Indicator
    ASHRAEClearSky,          !- Solar Model Indicator
    ,                        !- Beam Solar Day Schedule Name
    ,                        !- Diffuse Solar Day Schedule Name
    ,                        !- ASHRAE Clear Sky Optical Depth for Beam Irradiance (taub) {dimensionless}
    ,                        !- ASHRAE Clear Sky Optical Depth for Diffuse Irradiance (taud) {dimensionless}
    0.00;                    !- Sky Clearness

! LAS_VEGAS_NV_USA Annual Cooling (DB=>MWB) .4%, MaxDB=42.4°C MWB=19.4°C
SizingPeriod:DesignDay,
    LAS_VEGAS Ann Clg .4% Condns DB=>MWB,  !- Name
    7,                       !- Month
    21,                      !- Day of Month
    SummerDesignDay,         !- Day Type
    42.4,                    !- Maximum Dry-Bulb Temperature {C}
    13.6,                    !- Daily Dry-Bulb Temperature Range {deltaC}
    ,                        !- Dry-Bulb Temperature Range Modifier Type
    ,                        !- Dry-Bulb Temperature Range Modifier Day Schedule Name
    Wetbulb,                 !- Humidity Condition Type
    19.4,                    !- Wetbulb or DewPoint at Maximum Dry-Bulb {C}
    ,                        !- Humidity Condition Day Schedule Name
    ,                        !- Humidity Ratio at Maximum Dry-Bulb {kgWater/kgDryAir}
    ,                        !- Enthalpy at Maximum Dry-Bulb {J/kg}
    ,                        !- Daily Wet-Bulb Temperature Range {deltaC}
    93598.,                  !- Barometric Pressure {Pa}
    5.3,                     !- Wind Speed {m/s}
    230,                     !- Wind Direction {deg}
    No,                      !- Rain Indicator
    No,                      !- Snow Indicator
    No,                      !- Daylight Saving Time Indicator
    ASHRAEClearSky,          !- Solar Model Indicator
    ,                        !- Beam Solar Day Schedule Name
    ,                        !- Diffuse Solar Day Schedule Name
    ,                        !- ASHRAE Clear Sky Optical Depth for Beam Irradiance (taub) {dimensionless}
    ,                        !- ASHRAE Clear Sky Optical Depth for Diffuse Irradiance (taud) {dimensionless}
    1.00;                    !- Sky Clearness

ScheduleTypeLimits,
    Any Number;              !- Name

ScheduleTypeLimits,
    Fraction,                !- Name
    0.0,                     !- Lower Limit Value
    1.0,                     !- Upper Limit Value
    CONTINUOUS;              !- Numeric Type

ScheduleTypeLimits,
    Temperature,             !- Name
    -60,                     !- Lower Limit Value
    200,                     !- Upper Limit Value
    CONTINUOUS,              !- Numeric Type
    Temperature;             !- Unit Type

ScheduleTypeLimits,
    On/Off,                  !- Name
    0,                       !- Lower Limit Value
    1,                       !- Upper Limit Value
    DISCRETE;                !- Numeric Type

ScheduleTypeLimits,
    Control Type,            !- Name
    0,                       !- Lower Limit Value
    4,                       !- Upper Limit Value
    DISCRETE;                !- Numeric Type

ScheduleTypeLimits,
    Humidity,                !- Name
    10,                      !- Lower Limit Value
    90,                      !- Upper Limit Value
    CONTINUOUS;              !- Numeric Type

ScheduleTypeLimits,
    Number;                  !- Name

! Schedule set    Schedule_Office_ASHRAE_90.1-1989_TypTstatSetback[]
! Hours: Weekly: 92, Yearly: 4797
! Schedule Office Lighting,  ASHRAE 90.1-1989, Section 13 w/addenda
Schedule:Compact,
    BLDG_LIGHT_SCH,          !- Name
    Fraction,                !- Schedule Type Limits Name
    Through: 12/31,          !- Field 1
    For: Weekdays,           !- Field 2
    Until: 05:00, 0.05,      !- Field 4
    Until: 07:00, 0.1,       !- Field 6
    Until: 08:00, 0.3,       !- Field 8
    Until: 17:00, 0.9,       !- Field 10
    Until: 18:00, 0.5,       !- Field 12
    Until: 20:00, 0.3,       !- Field 14
    Until: 22:00, 0.2,       !- Field 16
    Until: 23:00, 0.1,       !- Field 18
    Until: 24:00, 0.05,      !- Field 20
    For: SummerDesignDay,    !- Field 21
    Until: 24:00, 1.0,       !- Field 23
    For: Saturday,           !- Field 24
    Until: 06:00, 0.05,      !- Field 26
    Until: 08:00, 0.1,       !- Field 28
    Until: 12:00, 0.3,       !- Field 30
    Until: 17:00, 0.15,      !- Field 32
    Until: 24:00, 0.05,      !- Field 34
    For: WinterDesignDay,    !- Field 35
    Until: 24:00, 0.0,       !- Field 37
    For: Sunday Holidays AllOtherDays,  !- Field 38
    Until: 24:00, 0.05;      !- Field 40

! Schedule Office Receptacle,  ASHRAE 90.1-1989, Section 13
! MODIFIED for increased off-hours plug loads (to account for more IT equipment)
! Hours: Weekly: 86.15, Yearly: 4492
Schedule:Compact,
    BLDG_EQUIP_SCH,          !- Name
    Fraction,                !- Schedule Type Limits Name
    Through: 12/31,          !- Field 1
    For: Weekdays,           !- Field 2
    Until: 08:00, 0.40,      !- Field 4
    Until: 12:00, 0.90,      !- Field 6
    Until: 13:00, 0.80,      !- Field 8
    Until: 17:00, 0.90,      !- Field 10
    Until: 18:00, 0.50,      !- Field 12
    Until: 24:00, 0.40,      !- Field 14
    For: SummerDesignDay,    !- Field 15
    Until: 24:00, 1.0,       !- Field 17
    For: Saturday,           !- Field 18
    Until: 06:00, 0.30,      !- Field 20
    Until: 08:00, 0.4,       !- Field 22
    Until: 12:00, 0.5,       !- Field 24
    Until: 17:00, 0.35,      !- Field 26
    Until: 24:00, 0.30,      !- Field 28
    For: WinterDesignDay,    !- Field 29
    Until: 24:00, 0.0,       !- Field 31
    For: Sunday Holidays AllOtherDays,  !- Field 32
    Until: 24:00, 0.30;      !- Field 34

! Schedule Office Occupancy,
Schedule:Compact,
    BLDG_OCC_SCH,            !- Name
    Fraction,                !- Schedule Type Limits Name
    Through: 12/31,          !- Field 1
    For: Weekdays,           !- Field 2
    Until: 06:00, 0.0,       !- Field 4
    Until: 07:00, 0.1,       !- Field 6
    Until: 08:00, 0.2,       !- Field 8
    Until: 12:00, 0.95,      !- Field 10
    Until: 13:00, 0.5,       !- Field 12
    Until: 17:00, 0.95,      !- Field 14
    Until: 18:00, 0.3,       !- Field 16
    Until: 20:00, 0.1,       !- Field 18
    Until: 24:00, 0.05,      !- Field 20
    For: SummerDesignDay,    !- Field 21
    Until: 06:00, 0.0,       !- Field 23
    Until: 22:00, 1.0,       !- Field 25
    Until: 24:00, 0.05,      !- Field 27
    For: Saturday,           !- Field 28
    Until: 06:00, 0.0,       !- Field 30
    Until: 08:00, 0.1,       !- Field 32
    Until: 12:00, 0.3,       !- Field 34
    Until: 17:00, 0.1,       !- Field 36
    Until: 19:00, 0.0,       !- Field 38
    Until: 24:00, 0.0,       !- Field 40
    For: WinterDesignDay,    !- Field 41
    Until: 24:00, 0.0,       !- Field 43
    For: Sunday Holidays AllOtherDays,  !- Field 44
    Until: 06:00, 0.0,       !- Field 46
    Until: 18:00, 0.0,       !- Field 48
    Until: 24:00, 0.0;       !- Field 50

! Schedule Elevator
Schedule:Compact,
    INFIL_QUARTER_ON_SCH,    !- Name
    fraction,                !- Schedule Type Limits Name
    Through: 12/31,          !- Field 1
    For: Weekdays SummerDesignDay,  !- Field 2
    Until: 06:00, 1.0,       !- Field 4
    Until: 22:00, 0.25,      !- Field 6
    Until: 24:00, 1.0,       !- Field 8
    For: Saturday WinterDesignDay,  !- Field 9
    Until: 06:00, 1.0,       !- Field 11
    Until: 18:00, 0.25,      !- Field 13
    Until: 24:00, 1.0,       !- Field 15
    For: Sunday Holidays AllOtherDays,  !- Field 16
    Until: 24:00, 1.0;       !- Field 18

! Schedule Office Service Water Heating, ASHRAE 90.1-1989, Section 13
Schedule:Compact,
    BLDG_SWH_SCH,            !- Name
    Fraction,                !- Schedule Type Limits Name
    Through: 12/31,          !- Field 1
    For: Weekdays SummerDesignDay,  !- Field 2
    Until: 05:00, 0.05,      !- Field 4
    Until: 06:00, 0.08,      !- Field 6
    Until: 07:00, 0.07,      !- Field 8
    Until: 08:00, 0.19,      !- Field 10
    Until: 09:00, 0.35,      !- Field 12
    Until: 10:00, 0.38,      !- Field 14
    Until: 11:00, 0.39,      !- Field 16
    Until: 12:00, 0.47,      !- Field 18
    Until: 13:00, 0.57,      !- Field 20
    Until: 14:00, 0.54,      !- Field 22
    Until: 15:00, 0.34,      !- Field 24
    Until: 16:00, 0.33,      !- Field 26
    Until: 17:00, 0.44,      !- Field 28
    Until: 18:00, 0.26,      !- Field 30
    Until: 19:00, 0.21,      !- Field 32
    Until: 20:00, 0.15,      !- Field 34
    Until: 21:00, 0.17,      !- Field 36
    Until: 22:00, 0.08,      !- Field 38
    Until: 24:00, 0.05,      !- Field 40
    For: Saturday WinterDesignDay,  !- Field 41
    Until: 05:00, 0.05,      !- Field 43
    Until: 06:00, 0.08,      !- Field 45
    Until: 07:00, 0.07,      !- Field 47
    Until: 08:00, 0.11,      !- Field 49
    Until: 09:00, 0.15,      !- Field 51
    Until: 10:00, 0.21,      !- Field 53
    Until: 11:00, 0.19,      !- Field 55
    Until: 12:00, 0.23,      !- Field 57
    Until: 13:00, 0.20,      !- Field 59
    Until: 14:00, 0.19,      !- Field 61
    Until: 15:00, 0.15,      !- Field 63
    Until: 16:00, 0.13,      !- Field 65
    Until: 17:00, 0.14,      !- Field 67
    Until: 21:00, 0.07,      !- Field 69
    Until: 22:00, 0.09,      !- Field 71
    Until: 24:00, 0.05,      !- Field 73
    For: Sunday Holidays AllOtherDays,  !- Field 74
    Until: 05:00, 0.04,      !- Field 76
    Until: 06:00, 0.07,      !- Field 78
    Until: 11:00, 0.04,      !- Field 80
    Until: 13:00, 0.06,      !- Field 82
    Until: 14:00, 0.09,      !- Field 84
    Until: 15:00, 0.06,      !- Field 86
    Until: 21:00, 0.04,      !- Field 88
    Until: 22:00, 0.07,      !- Field 90
    Until: 24:00, 0.04;      !- Field 92

Schedule:Compact,
    ALWAYS_ON,               !- Name
    Fraction,                !- Schedule Type Limits Name
    Through: 12/31,          !- Field 1
    For: AllDays,            !- Field 2
    Until: 24:00, 1.0;       !- Field 4

! Schedule Office HVAC Systems, ASHRAE 90.1-1989, Section 13
!  Equivalent Full-Load Hours: Weekdays 16, Saturday 12, Sunday/Holidays 0
Schedule:Compact,
    HVACOperationSchd,       !- Name
    on/off,                  !- Schedule Type Limits Name
    Through: 12/31,          !- Field 1
    For: Weekdays SummerDesignDay,  !- Field 2
    Until: 06:00, 0.0,       !- Field 4
    Until: 22:00, 1.0,       !- Field 6
    Until: 24:00, 0.0,       !- Field 8
    For: Saturday WinterDesignDay,  !- Field 9
    Until: 06:00, 0.0,       !- Field 11
    Until: 18:00, 1.0,       !- Field 13
    Until: 24:00, 0.0,       !- Field 15
    For: Sunday Holidays AllOtherDays,  !- Field 16
    Until: 24:00, 0.0;       !- Field 18

Schedule:Compact,
    PlantOnSched,            !- Name
    On/Off,                  !- Schedule Type Limits Name
    Through: 12/31,          !- Field 1
    For: AllDays,            !- Field 2
    Until: 24:00, 1.0;       !- Field 4

Schedule:Compact,
    HTGSETP_SCH,             !- Name
    Temperature,             !- Schedule Type Limits Name
    Through: 12/31,          !- Field 1
    For: Weekdays WinterDesignDay,  !- Field 2
    Until: 05:00, 15.6,      !- Field 4
    Until: 19:00, 21.0,      !- Field 6
    Until: 24:00, 13.,       !- Field 8
    For SummerDesignDay,     !- Field 9
    Until: 24:00, 15.6,      !- Field 11
    For: Saturday,           !- Field 12
    Until: 06:00, 15.6,      !- Field 14
    Until: 17:00, 21.0,      !- Field 16
    Until: 24:00, 15.6,      !- Field 18
    For: Sunday Holidays AllOtherDays,  !- Field 19
    Until: 24:00, 15.6;      !- Field 21

Schedule:Compact,
    CLGSETP_SCH,             !- Name
    Temperature,             !- Schedule Type Limits Name
    Through: 12/31,          !- Field 1
    For: Weekdays SummerDesignDay,  !- Field 2
    Until: 06:00, 30.0,      !- Field 4
    Until: 22:00, 24.0,      !- Field 6
    Until: 24:00, 30.0,      !- Field 8
    For: Saturday,           !- Field 9
    Until: 06:00, 30.0,      !- Field 11
    Until: 18:00, 24.0,      !- Field 13
    Until: 24:00, 30.0,      !- Field 15
    For WinterDesignDay,     !- Field 16
    Until: 24:00, 30.0,      !- Field 18
    For: Sunday Holidays AllOtherDays,  !- Field 19
    Until: 24:00, 30.0;      !- Field 21

Schedule:Compact,
    MinOA_Sched,             !- Name
    fraction,                !- Schedule Type Limits Name
    Through: 12/31,          !- Field 1
    For: AllDays,            !- Field 2
    Until: 24:00, 1.0;       !- Field 4

Schedule:Compact,
    Dual Zone Control Type Sched,  !- Name
    Control Type,            !- Schedule Type Limits Name
    Through: 12/31,          !- Field 1
    For: AllDays,            !- Field 2
    Until: 24:00, 4;         !- Field 4

Schedule:Compact,
    ACTIVITY_SCH,            !- Name
    Any Number,              !- Schedule Type Limits Name
    Through: 12/31,          !- Field 1
    For: AllDays,            !- Field 2
    Until: 24:00, 120.;      !- Field 4

Schedule:Compact,
    WORK_EFF_SCH,            !- Name
    Fraction,                !- Schedule Type Limits Name
    Through: 12/31,          !- Field 1
    For: AllDays,            !- Field 2
    Until: 24:00, 0.0;       !- Field 4

Schedule:Compact,
    AIR_VELO_SCH,            !- Name
    Any Number,              !- Schedule Type Limits Name
    Through: 12/31,          !- Field 1
    For: AllDays,            !- Field 2
    Until: 24:00, 0.2;       !- Field 4

Schedule:Compact,
    CLOTHING_SCH,            !- Name
    Any Number,              !- Schedule Type Limits Name
    Through: 04/30,          !- Field 1
    For: AllDays,            !- Field 2
    Until: 24:00, 1.0,       !- Field 4
    Through: 09/30,          !- Field 5
    For: AllDays,            !- Field 6
    Until: 24:00, 0.5,       !- Field 8
    Through: 12/31,          !- Field 9
    For: AllDays,            !- Field 10
    Until: 24:00, 1.0;       !- Field 12

WindowMaterial:Glazing,
    Theoretical Glass [68],  !- Name
    SpectralAverage,         !- Optical Data Type
    ,                        !- Window Glass Spectral Data Set Name
    0.0030,                  !- Thickness {m}
    0.2442,                  !- Solar Transmittance at Normal Incidence
    0.7058,                  !- Front Side Solar Reflectance at Normal Incidence
    0.7058,                  !- Back Side Solar Reflectance at Normal Incidence
    0.3192,                  !- Visible Transmittance at Normal Incidence
    0.6308,                  !- Front Side Visible Reflectance at Normal Incidence
    0.6308,                  !- Back Side Visible Reflectance at Normal Incidence
    0.0000,                  !- Infrared Transmittance at Normal Incidence
    0.9000,                  !- Front Side Infrared Hemispherical Emissivity
    0.9000,                  !- Back Side Infrared Hemispherical Emissivity
    0.0199,                  !- Conductivity {W/m-K}
    1.0000,                  !- Dirt Correction Factor for Solar and Visible Transmittance
    No;                      !- Solar Diffusing

WindowMaterial:Glazing,
    Theoretical Glass [63],  !- Name
    SpectralAverage,         !- Optical Data Type
    ,                        !- Window Glass Spectral Data Set Name
    0.0030,                  !- Thickness {m}
    0.3461,                  !- Solar Transmittance at Normal Incidence
    0.6039,                  !- Front Side Solar Reflectance at Normal Incidence
    0.6039,                  !- Back Side Solar Reflectance at Normal Incidence
    0.4573,                  !- Visible Transmittance at Normal Incidence
    0.4927,                  !- Front Side Visible Reflectance at Normal Incidence
    0.4927,                  !- Back Side Visible Reflectance at Normal Incidence
    0.0000,                  !- Infrared Transmittance at Normal Incidence
    0.9990,                  !- Front Side Infrared Hemispherical Emissivity
    0.9990,                  !- Back Side Infrared Hemispherical Emissivity
    299.3830,                !- Conductivity {W/m-K}
    1.0000,                  !- Dirt Correction Factor for Solar and Visible Transmittance
    No;                      !- Solar Diffusing

Material,
    Wood Shingles,           !- Name
    VeryRough,               !- Roughness
    0.0178,                  !- Thickness {m}
    0.1150,                  !- Conductivity {W/m-K}
    513.0000,                !- Density {kg/m3}
    1255.0000,               !- Specific Heat {J/kg-K}
    0.9000,                  !- Thermal Absorptance
    0.7800,                  !- Solar Absorptance
    0.7800;                  !- Visible Absorptance

Material,
    1IN Wood Decking,        !- Name
    MediumSmooth,            !- Roughness
    0.0254,                  !- Thickness {m}
    0.1211,                  !- Conductivity {W/m-K}
    593.0000,                !- Density {kg/m3}
    2510.0000,               !- Specific Heat {J/kg-K}
    0.9000,                  !- Thermal Absorptance
    0.7800,                  !- Solar Absorptance
    0.7800;                  !- Visible Absorptance

Material,
    Roof Insulation [2],     !- Name
    MediumRough,             !- Roughness
    0.2216,                  !- Thickness {m}
    0.0490,                  !- Conductivity {W/m-K}
    265.0000,                !- Density {kg/m3}
    836.8000,                !- Specific Heat {J/kg-K}
    0.9000,                  !- Thermal Absorptance
    0.7000,                  !- Solar Absorptance
    0.7000;                  !- Visible Absorptance

Material,
    1/2IN Gypsum,            !- Name
    Smooth,                  !- Roughness
    0.0127,                  !- Thickness {m}
    0.1600,                  !- Conductivity {W/m-K}
    784.9000,                !- Density {kg/m3}
    830.0000,                !- Specific Heat {J/kg-K}
    0.9000,                  !- Thermal Absorptance
    0.9200,                  !- Solar Absorptance
    0.9200;                  !- Visible Absorptance

Material,
    GP01 1/2 GYPSUM,         !- Name
    Smooth,                  !- Roughness
    0.0127,                  !- Thickness {m}
    0.1600,                  !- Conductivity {W/m-K}
    800.0000,                !- Density {kg/m3}
    1090.0000,               !- Specific Heat {J/kg-K}
    0.9000,                  !- Thermal Absorptance
    0.7000,                  !- Solar Absorptance
    0.5000;                  !- Visible Absorptance

Material,
    1IN Stucco,              !- Name
    Smooth,                  !- Roughness
    0.0253,                  !- Thickness {m}
    0.6918,                  !- Conductivity {W/m-K}
    1858.0000,               !- Density {kg/m3}
    837.0000,                !- Specific Heat {J/kg-K}
    0.9000,                  !- Thermal Absorptance
    0.9200,                  !- Solar Absorptance